@<TRIPOS>MOLECULE
*****
 18 17 0 0 0
SMALL
GASTEIGER

@<TRIPOS>ATOM
      1 C           2.0772   -1.7871    0.4685 C.2     1  UNL1        0.2006
      2 O           2.7627   -1.7080   -0.5592 O.2     1  UNL1       -0.2795
      3 N           1.0633   -0.9165    0.7434 N.am    1  UNL1       -0.3058
      4 H           0.6978   -0.9105    1.6912 H       1  UNL1        0.1492
      5 C           0.6415    0.1420   -0.1883 C.3     1  UNL1        0.1088
      6 H           0.7471   -0.2746   -1.2006 H       1  UNL1        0.0603
      7 C           1.5833    1.3535   -0.0275 C.2     1  UNL1        0.2317
      8 O           1.1857    2.3432    0.5910 O.2     1  UNL1       -0.2740
      9 H          -0.9027    1.0515    1.0090 H       1  UNL1        0.0409
     10 H          -1.0570    1.2926   -0.7604 H       1  UNL1        0.0409
     11 C          -0.8331    0.5709    0.0289 C.3     1  UNL1        0.0346
     12 S          -2.1357   -0.7438   -0.0546 S.3     1  UNL1       -0.0442
     13 C          -1.5204   -2.1126    0.7549 C.1     1  UNL1        0.1330
     14 N          -1.0842   -3.0362    1.3609 N.1     1  UNL1       -0.1838
     15 N           2.8111    1.2373   -0.5974 N.am    1  UNL1       -0.3278
     16 H           2.2478   -2.5481    1.2456 H       1  UNL1        0.1251
     17 H           3.0882    0.3378   -0.9832 H       1  UNL1        0.1450
     18 H           3.4609    2.0076   -0.5150 H       1  UNL1        0.1450
@<TRIPOS>BOND
     1     6     5    1
     2    17    15    1
     3    10    11    1
     4    15    18    1
     5    15     7   am
     6     2     1    2
     7     5     7    1
     8     5    11    1
     9     5     3    1
    10    12    11    1
    11    12    13    1
    12     7     8    2
    13    11     9    1
    14     1     3   am
    15     1    16    1
    16     3     4    1
    17    13    14    3
