# created with PyMOL 2.2.2
@<TRIPOS>MOLECULE
MOLECULE0.xyz
18 19 1                 
SMALL
USER_CHARGES
@<TRIPOS>ATOM
1	   C	5.147	-10.285	-6.045	C.2	1	UNK0	0.000	
2	   C	4.496	-9.068	-6.253	C.2	1	UNK0	0.000	
3	   C	4.173	-8.231	-5.178	C.2	1	UNK0	0.000	
4	   C	4.507	-8.741	-3.914	C.2	1	UNK0	0.000	
5	   N	5.155	-9.911	-3.669	N.2	1	UNK0	0.000	
6	   C	5.463	-10.656	-4.745	C.2	1	UNK0	0.000	
7	   C	3.582	-6.881	-5.320	C.2	1	UNK0	0.000	
8	   C	3.249	-6.282	-6.515	C.2	1	UNK0	0.000	
9	   C	2.833	-4.971	-6.442	C.2	1	UNK0	0.000	
10	   N	2.753	-4.266	-5.297	N.2	1	UNK0	0.000	
11	   C	3.092	-4.908	-4.175	C.2	1	UNK0	0.000	
12	   N	3.465	-6.198	-4.165	N.2	1	UNK0	0.000	
13	   H	5.410	-10.929	-6.874	 H	1	UNK0	0.000	
14	   H	4.267	-8.788	-7.277	 H	1	UNK0	0.000	
15	   H	4.260	-8.192	-3.009	 H	1	UNK0	0.000	
16	   H	5.984	-11.586	-4.537	 H	1	UNK0	0.000	
17	   H	3.323	-6.778	-7.471	 H	1	UNK0	0.000	
18	   H	2.561	-4.424	-7.340	 H	1	UNK0	0.000	
@<TRIPOS>BOND
1 1 2 1
2 1 6 2
3 1 13 1
4 2 3 2
5 2 14 1
6 3 4 1
7 3 7 1
8 4 5 2
9 4 15 1
10 5 6 1
11 6 16 1
12 7 8 1
13 7 12 2
14 8 9 2
15 8 17 1
16 9 10 1
17 9 18 1
18 10 11 2
19 11 12 1
@<TRIPOS>SUBSTRUCTURE
1	UNK0	1	GROUP	1 ****	UNK
