@<TRIPOS>MOLECULE
*****
 68 72 0 0 0
SMALL
GASTEIGER

@<TRIPOS>ATOM
      1 C           0.0864    4.6329   -1.4209 C.ar    1  UNL1       -0.0430
      2 C           1.4105    4.4897   -0.9833 C.ar    1  UNL1       -0.0497
      3 C           1.9451    3.2040   -0.7674 C.ar    1  UNL1        0.0186
      4 C           1.0742    2.1221   -1.0493 C.ar    1  UNL1        0.0367
      5 N          -0.1897    2.2362   -1.4755 N.ar    1  UNL1       -0.2626
      6 C          -0.6698    3.4771   -1.6479 C.ar    1  UNL1        0.0276
      7 C           3.3528    2.9535   -0.2845 C.ar    1  UNL1        0.0775
      8 C           4.3374    3.9332   -0.0803 C.ar    1  UNL1       -0.0174
      9 C           5.5847    3.4592    0.3424 C.ar    1  UNL1        0.0332
     10 N           5.8682    2.1791    0.5675 N.ar    1  UNL1       -0.2226
     11 C           4.8550    1.3097    0.3700 C.ar    1  UNL1        0.2200
     12 N           3.6336    1.6588   -0.0423 N.ar    1  UNL1       -0.2142
     13 N           5.1483   -0.0227    0.6215 N.pl3   1  UNL1       -0.2833
     14 C           4.3940   -1.2443    0.4733 C.ar    1  UNL1        0.0383
     15 C           5.0806   -2.4961    0.4574 C.ar    1  UNL1       -0.0291
     16 C           4.3013   -3.6526    0.2832 C.ar    1  UNL1       -0.0553
     17 C           2.9095   -3.6418    0.1331 C.ar    1  UNL1       -0.0401
     18 C           2.2476   -2.4107    0.1830 C.ar    1  UNL1        0.0354
     19 C           2.9987   -1.2368    0.3534 C.ar    1  UNL1       -0.0190
     20 N           0.8363   -2.2091    0.0492 N.am    1  UNL1       -0.2814
     21 C          -0.1734   -3.0740   -0.3021 C.2     1  UNL1        0.2483
     22 C          -1.5350   -2.4759   -0.6000 C.ar    1  UNL1        0.0370
     23 C          -1.7065   -1.2246   -1.2165 C.ar    1  UNL1       -0.0493
     24 C          -2.9875   -0.7188   -1.4467 C.ar    1  UNL1       -0.0566
     25 C          -4.1391   -1.4516   -1.1036 C.ar    1  UNL1       -0.0333
     26 C          -3.9535   -2.7026   -0.4845 C.ar    1  UNL1       -0.0566
     27 C          -2.6758   -3.2146   -0.2448 C.ar    1  UNL1       -0.0493
     28 C          -5.5334   -0.8715   -1.3459 C.3     1  UNL1        0.0241
     29 N          -6.0432    0.0508   -0.3133 N.3     1  UNL1       -0.2957
     30 C          -6.5192   -0.5249    0.9634 C.3     1  UNL1        0.0120
     31 C          -8.0308   -0.8670    0.9405 C.3     1  UNL1        0.0114
     32 N          -8.9184    0.2447    0.5235 N.3     1  UNL1       -0.3029
     33 C          -9.3007    1.1972    1.5735 C.3     1  UNL1       -0.0127
     34 C          -8.4136    0.8341   -0.7413 C.3     1  UNL1        0.0114
     35 C          -6.9030    1.1795   -0.7260 C.3     1  UNL1        0.0120
     36 O          -0.0100   -4.2834   -0.3504 O.2     1  UNL1       -0.2699
     37 C           6.5888   -2.6249    0.5859 C.3     1  UNL1       -0.0380
     38 H          -0.3499    5.6143   -1.5818 H       1  UNL1        0.0633
     39 H           1.9926    5.3895   -0.7999 H       1  UNL1        0.0625
     40 H           1.4304    1.1026   -0.9482 H       1  UNL1        0.0836
     41 H          -1.7014    3.5442   -1.9898 H       1  UNL1        0.0829
     42 H           4.1874    4.9912   -0.2575 H       1  UNL1        0.0654
     43 H           6.4080    4.1539    0.5060 H       1  UNL1        0.0831
     44 H           6.1205   -0.1126    0.8766 H       1  UNL1        0.1550
     45 H           4.7926   -4.6244    0.2483 H       1  UNL1        0.0621
     46 H           2.3473   -4.5566   -0.0098 H       1  UNL1        0.0636
     47 H           2.4958   -0.2840    0.3916 H       1  UNL1        0.0655
     48 H           0.5408   -1.2502    0.1687 H       1  UNL1        0.1551
     49 H          -0.8367   -0.6369   -1.5016 H       1  UNL1        0.0625
     50 H          -3.0829    0.2652   -1.9052 H       1  UNL1        0.0621
     51 H          -4.8172   -3.2966   -0.1866 H       1  UNL1        0.0621
     52 H          -2.5414   -4.1859    0.2248 H       1  UNL1        0.0625
     53 H          -5.5415   -0.3477   -2.3119 H       1  UNL1        0.0476
     54 H          -6.2444   -1.7042   -1.4491 H       1  UNL1        0.0476
     55 H          -5.9212   -1.3369    1.2502 H       1  UNL1        0.0439
     56 H          -6.3427    0.5579    2.0579 H       1  UNL1        0.0439
     57 H          -8.4126   -1.3040    2.1953 H       1  UNL1        0.0439
     58 H          -8.2234   -1.9890   -0.0375 H       1  UNL1        0.0439
     59 H          -8.4276    1.7504    1.9383 H       1  UNL1        0.0391
     60 H          -9.7618    0.6683    2.4155 H       1  UNL1        0.0391
     61 H         -10.0347    1.9129    1.1856 H       1  UNL1        0.0391
     62 H          -9.0199    1.6769   -1.0146 H       1  UNL1        0.0439
     63 H          -8.5853   -0.2577   -1.8500 H       1  UNL1        0.0439
     64 H          -6.7144    2.3069    0.2714 H       1  UNL1        0.0439
     65 H          -6.5303    1.6306   -1.9066 H       1  UNL1        0.0439
     66 H           6.9378   -2.2769    1.5684 H       1  UNL1        0.0278
     67 H           7.1104   -2.0326   -0.1792 H       1  UNL1        0.0278
     68 H           6.9420   -3.6594    0.4742 H       1  UNL1        0.0278
@<TRIPOS>BOND
     1    53    28    1
     2    41     6    1
     3    65    35    1
     4    50    24    1
     5     6     5   ar
     6     6     1   ar
     7    38     1    1
     8    49    23    1
     9     5     4   ar
    10    54    28    1
    11    24    23   ar
    12    24    25   ar
    13     1     2   ar
    14    28    25    1
    15    28    29    1
    16    23    22   ar
    17    25    26   ar
    18     4    40    1
    19     4     3   ar
    20    62    34    1
    21     2    39    1
    22     2     3   ar
    23     3     7    1
    24    34    35    1
    25    34    32    1
    26    35    29    1
    27    35    64    1
    28    22    21    1
    29    22    27   ar
    30    26    27   ar
    31    26    51    1
    32    36    21    2
    33    29    30    1
    34    21    20   am
    35     7     8   ar
    36     7    12   ar
    37    42     8    1
    38    27    52    1
    39    67    37    1
    40     8     9   ar
    41    12    11   ar
    42    58    31    1
    43    46    17    1
    44    20    48    1
    45    20    18    1
    46    17    18   ar
    47    17    16   ar
    48    18    19   ar
    49    45    16    1
    50    16    15   ar
    51     9    43    1
    52     9    10   ar
    53    19    47    1
    54    19    14   ar
    55    11    10   ar
    56    11    13    1
    57    15    14   ar
    58    15    37    1
    59    14    13    1
    60    68    37    1
    61    32    31    1
    62    32    33    1
    63    37    66    1
    64    13    44    1
    65    31    30    1
    66    31    57    1
    67    30    55    1
    68    61    33    1
    69    33    59    1
    70    33    60    1
    71    30    56    1
    72    63    34    1
