@<TRIPOS>MOLECULE
*****
 68 72 0 0 0
SMALL
GASTEIGER

@<TRIPOS>ATOM
      1 C          -0.2346    4.1902   -0.9699 C.ar    1  UNL1       -0.0430
      2 C           1.0908    4.1140   -0.5247 C.ar    1  UNL1       -0.0497
      3 C           1.8461    2.9424   -0.7400 C.ar    1  UNL1        0.0186
      4 C           1.1651    1.8795   -1.3810 C.ar    1  UNL1        0.0367
      5 N          -0.1035    1.9327   -1.8067 N.ar    1  UNL1       -0.2626
      6 C          -0.7835    3.0717   -1.6047 C.ar    1  UNL1        0.0276
      7 C           3.2812    2.7879   -0.2996 C.ar    1  UNL1        0.0775
      8 C           4.0295    1.5990   -0.3162 C.ar    1  UNL1       -0.0174
      9 C           5.3501    1.7058    0.1324 C.ar    1  UNL1        0.0332
     10 N           5.9122    2.8353    0.5517 N.ar    1  UNL1       -0.2226
     11 C           5.1205    3.9282    0.5318 C.ar    1  UNL1        0.2200
     12 N           3.8460    3.9343    0.1298 N.ar    1  UNL1       -0.2142
     13 N           5.7267    5.0989    0.9621 N.pl3   1  UNL1       -0.2833
     14 C           5.2557    6.4436    1.1782 C.ar    1  UNL1        0.0383
     15 C           6.0425    7.3398    1.9640 C.ar    1  UNL1       -0.0291
     16 C           5.5422    8.6392    2.1513 C.ar    1  UNL1       -0.0553
     17 C           4.3235    9.0885    1.6306 C.ar    1  UNL1       -0.0401
     18 C           3.5637    8.1987    0.8644 C.ar    1  UNL1        0.0354
     19 C           4.0440    6.8973    0.6429 C.ar    1  UNL1       -0.0190
     20 N           2.2874    8.4775    0.2818 N.am    1  UNL1       -0.2814
     21 C           1.4418    9.5526    0.4248 C.2     1  UNL1        0.2483
     22 C           0.0353    9.3938   -0.1181 C.ar    1  UNL1        0.0370
     23 C          -0.6659    8.1787   -0.0458 C.ar    1  UNL1       -0.0493
     24 C          -1.9446    8.0667   -0.5942 C.ar    1  UNL1       -0.0566
     25 C          -2.5693    9.1590   -1.2244 C.ar    1  UNL1       -0.0333
     26 C          -1.8667   10.3791   -1.2625 C.ar    1  UNL1       -0.0566
     27 C          -0.5935   10.5052   -0.7013 C.ar    1  UNL1       -0.0493
     28 C          -3.9367    9.0017   -1.8910 C.3     1  UNL1        0.0241
     29 N          -4.0082    8.4679   -3.2626 N.3     1  UNL1       -0.2957
     30 C          -3.7968    7.0197   -3.4822 C.3     1  UNL1        0.0120
     31 C          -2.3385    6.6347   -3.8421 C.3     1  UNL1        0.0114
     32 N          -1.7836    7.3861   -4.9925 N.3     1  UNL1       -0.3029
     33 C          -2.1327    6.8970   -6.3317 C.3     1  UNL1       -0.0127
     34 C          -1.9616    8.8394   -4.7536 C.3     1  UNL1        0.0114
     35 C          -3.4052    9.2529   -4.3640 C.3     1  UNL1        0.0120
     36 O           1.7856   10.6037    0.9400 O.2     1  UNL1       -0.2699
     37 C           7.3666    6.9545    2.6014 C.3     1  UNL1       -0.0380
     38 H          -0.8292    5.0865   -0.8250 H       1  UNL1        0.0633
     39 H           1.5187    4.9629   -0.0001 H       1  UNL1        0.0625
     40 H           1.6613    0.9347   -1.5868 H       1  UNL1        0.0836
     41 H          -1.8109    3.0831   -1.9651 H       1  UNL1        0.0829
     42 H           3.6431    0.6382   -0.6333 H       1  UNL1        0.0654
     43 H           5.9950    0.8277    0.1546 H       1  UNL1        0.0831
     44 H           6.6732    4.8988    1.2487 H       1  UNL1        0.1550
     45 H           6.1154    9.3496    2.7455 H       1  UNL1        0.0621
     46 H           3.9636   10.0930    1.8185 H       1  UNL1        0.0636
     47 H           3.4667    6.2047    0.0496 H       1  UNL1        0.0655
     48 H           1.9188    7.7217   -0.2783 H       1  UNL1        0.1551
     49 H          -0.2098    7.3278    0.4547 H       1  UNL1        0.0625
     50 H          -2.4602    7.1084   -0.5311 H       1  UNL1        0.0621
     51 H          -2.3127   11.2494   -1.7432 H       1  UNL1        0.0621
     52 H          -0.0602   11.4522   -0.7239 H       1  UNL1        0.0625
     53 H          -4.5617    8.3568   -1.2561 H       1  UNL1        0.0476
     54 H          -4.4337    9.9828   -1.9062 H       1  UNL1        0.0476
     55 H          -4.1826    6.4585   -2.6811 H       1  UNL1        0.0439
     56 H          -4.6537    6.6258   -4.7523 H       1  UNL1        0.0439
     57 H          -2.3464    5.1652   -4.1942 H       1  UNL1        0.0439
     58 H          -1.6424    6.7756   -2.9649 H       1  UNL1        0.0439
     59 H          -3.2061    7.0062   -6.5238 H       1  UNL1        0.0391
     60 H          -1.8606    5.8402   -6.4314 H       1  UNL1        0.0391
     61 H          -1.5802    7.4581   -7.0942 H       1  UNL1        0.0391
     62 H          -1.5964    9.4171   -5.6540 H       1  UNL1        0.0439
     63 H          -1.0749    9.1971   -3.6037 H       1  UNL1        0.0439
     64 H          -4.2773    8.9803   -5.6532 H       1  UNL1        0.0439
     65 H          -3.4798   10.3439   -4.1520 H       1  UNL1        0.0439
     66 H           8.1242    6.7189    1.8405 H       1  UNL1        0.0278
     67 H           7.2596    6.0711    3.2465 H       1  UNL1        0.0278
     68 H           7.7884    7.7509    3.2301 H       1  UNL1        0.0278
@<TRIPOS>BOND
     1    61    33    1
     2    59    33    1
     3    60    33    1
     4    33    32    1
     5    62    34    1
     6    32    34    1
     7    32    31    1
     8    34    35    1
     9    34    63    1
    10    35    65    1
    11    35    29    1
    12    57    31    1
    13    31    30    1
    14    31    58    1
    15    30    29    1
    16    30    55    1
    17    29    28    1
    18    41     6    1
    19    54    28    1
    20    28    53    1
    21    28    25    1
    22     5     6   ar
    23     5     4   ar
    24    51    26    1
    25     6     1   ar
    26    40     4    1
    27     4     3   ar
    28    26    25   ar
    29    26    27   ar
    30    25    24   ar
    31     1    38    1
    32     1     2   ar
    33     3     2   ar
    34     3     7    1
    35    52    27    1
    36    27    22   ar
    37    42     8    1
    38    24    50    1
    39    24    23   ar
    40     2    39    1
    41     8     7   ar
    42     8     9   ar
    43     7    12   ar
    44    48    20    1
    45    22    23   ar
    46    22    21    1
    47    23    49    1
    48    47    19    1
    49    12    11   ar
    50     9    43    1
    51     9    10   ar
    52    20    21   am
    53    20    18    1
    54    21    36    2
    55    11    10   ar
    56    11    13    1
    57    19    18   ar
    58    19    14   ar
    59    18    17   ar
    60    13    14    1
    61    13    44    1
    62    14    15   ar
    63    17    46    1
    64    17    16   ar
    65    66    37    1
    66    15    16   ar
    67    15    37    1
    68    16    45    1
    69    37    68    1
    70    37    67    1
    71    30    56    1
    72    35    64    1
